## Base Commands
start = 
    👋 Hello, { $name }! 
    I'm your AI English Tutor. I'll help you speak fluently.
    
    Send me **voice messages**, and I will correct your mistakes in real-time.
    
    To start, please select your level below:

language = Select interface language:
setcommands = Bot commands have been updated.

## Welcome and Status
welcome = Welcome to FluentAI! 🚀
welcome-back = Welcome back!

## Settings
language-select = Please, select your language:
language-changed = Language successfully changed!
language-level-title = Select your language level:

## Errors
admin-commands-updated = Commands updated.
unhandled = Unrecognized command. Try /start or send me a voice message.

## FluentAI Specific
level-selected = Level { $level } set! Now choose a scenario or just start talking.
low-balance = ⚠️ You've run out of free messages. Go to your profile to upgrade to Premium.
word-added = ✨ Added "{$word}" to your vocabulary.

## Main Menu
menu-main-title = 📱 Main Menu:
menu-main-vocabulary = 📚 Vocabulary ({ $count })
menu-main-free-chat = 💬 Free Chat
menu-main-settings = ⚙️ Settings

menu-settings-tone = 🎭 Roleplay & Tone
menu-settings-language = 🌐 Target Language
menu-settings-level = 📊 Language Level

menu-free-chat = 🎙 Free Chat
menu-roles = 🎭 Scenarios
menu-vocabulary = 📚 My Vocabulary
menu-settings = ⚙️ Settings

## Menu Notifications
in-development = 🚧 This feature is still in development!

language-to-learn = 🎯 Which language do you want to learn?
language-level = 📊 Select your current level:

## Free Chat
free-chat-activated = 🎙 Free Chat mode activated!\n\nSend me a text or a voice message in English.
free-chat-cancel-btn = ❌ End dialogue
free-chat-analyzing = Analyzing our dialogue, please wait... ⏳
free-chat-no-messages = You haven't sent any messages yet.
free-chat-error = An error occurred processing your message. Please try again.
free-chat-analysis-error = Failed to analyze the dialogue 😔
free-chat-analysis-title = 📊 Dialogue Analysis
free-chat-analysis-feedback = Feedback:
free-chat-analysis-mistakes = Mistakes & Corrections:
free-chat-analysis-new-words = New words:
free-chat-add-word-btn = ➕ Add '{$word}'
vocabulary-empty = 📭 Your vocabulary is empty. Start chatting to add new words!
vocabulary-title = My Vocabulary
vocabulary-word-card =
    🇬🇧 Word: <b>{ $word }</b>
    🇷🇺 Translation: <b>{ $translation }</b>
    📊 Status: <b>{ $status }</b>

vocabulary-status-learning = 🔴 Learning
vocabulary-status-learned = ✅ Learned
vocabulary-mark-learned = Mark as Learned ✅
vocabulary-mark-learning = Mark as Learning 🔴
vocabulary-delete = Delete Word 🗑
vocabulary-back = ⬅️ Back to Vocabulary
vocabulary-next = Next ➡️
vocabulary-prev = ⬅️ Previous
vocabulary-category-learning = 🔴 Studying
vocabulary-category-learned = ✅ Learned
vocabulary-select-language = Select language:
vocabulary-added-success = ✅ Added
