## Base Commands
start = 
    👋 Hello, { $name }! 
    I'm your AI English Tutor. I'll help you speak fluently.
    
    Send me **voice messages**, and I will correct your mistakes in real-time.
    
    To start, please select your level below:

language = Select interface language:
setcommands = Bot commands have been updated.

## Welcome and Status
welcome = Welcome to FluentAI! 🚀

## Settings
language-select = Please, select your language:
language-changed = Language successfully changed!

## Errors
admin-commands-updated = Commands updated.
unhandled = Unrecognized command. Try /start or send me a voice message.

## FluentAI Specific
level-selected = Level { $level } set! Now choose a scenario or just start talking.
low-balance = ⚠️ You've run out of free messages. Go to your profile to upgrade to Premium.
word-added = ✨ Added "{$word}" to your vocabulary.

## Main Menu
menu-main-title = 📱 Main Menu. Choose an action:
menu-free-chat = 🎙 Free Chat
menu-roles = 🎭 Scenarios
menu-vocabulary = 📚 My Vocabulary
menu-settings = ⚙️ Settings

## Menu Notifications
in-development = 🚧 This feature is still in development!

language-to-learn = 🎯 Which language do you want to learn?
language-level = 📊 Select your current level:
menu-main-title = 📱 Main Menu:
menu-free-chat = 🎙 Free Chat
menu-roles = 🎭 Scenarios
menu-vocabulary = 📚 My Vocabulary
menu-settings = ⚙️ Settings
in-development = 🚧 Feature in development!